PV_Scenarios/PV_combined/scenario_94_combined/PV_combined100per.txt
New PVSystem.PV_1 phases=1 bus1=G2000SK7800_N274150_sec_5.2 kV=0.24 kVA=13.32 irradiance=1 Pmpp=11.1 %cutin=0.1 %cutout=0.1
New PVSystem.PV_2 phases=1 bus1=G2000WO2300_N283902_sec_1.3 kV=0.24 kVA=6.96 irradiance=1 Pmpp=5.8 %cutin=0.1 %cutout=0.1
New PVSystem.PV_3 phases=1 bus1=G2000XG5800_N283612_sec_3.3 kV=0.24 kVA=5.28 irradiance=1 Pmpp=4.4 %cutin=0.1 %cutout=0.1
New PVSystem.PV_4 phases=1 bus1=G2000XH4800_N283608_sec_1.2 kV=0.24 kVA=1.68 irradiance=1 Pmpp=1.4 %cutin=0.1 %cutout=0.1
New PVSystem.PV_5 phases=1 bus1=G2000XL8000_N283769_sec_4.1 kV=0.24 kVA=3.24 irradiance=1 Pmpp=2.7 %cutin=0.1 %cutout=0.1
New PVSystem.PV_6 phases=1 bus1=G2000XN2900_N283859_sec_1.3 kV=0.24 kVA=2.76 irradiance=1 Pmpp=2.3 %cutin=0.1 %cutout=0.1
New PVSystem.PV_7 phases=1 bus1=G2001RM4100_N274534_sec_1.2 kV=0.24 kVA=6.0429 irradiance=1 Pmpp=5.0357 %cutin=0.1 %cutout=0.1
New PVSystem.PV_8 phases=1 bus1=G2001SA1700_N274258_sec_5.3 kV=0.24 kVA=7.32 irradiance=1 Pmpp=6.1 %cutin=0.1 %cutout=0.1
New PVSystem.PV_9 phases=1 bus1=G2001SL1900_N274539_sec_2.2 kV=0.24 kVA=10.56 irradiance=1 Pmpp=8.8 %cutin=0.1 %cutout=0.1
New PVSystem.PV_10 phases=1 bus1=G2001TA6400_N274237_sec_3.3 kV=0.24 kVA=0.48 irradiance=1 Pmpp=0.4 %cutin=0.1 %cutout=0.1
New PVSystem.PV_11 phases=1 bus1=G2001TL8200_N274509_sec_1.2 kV=0.24 kVA=4.5989 irradiance=1 Pmpp=3.8324 %cutin=0.1 %cutout=0.1
New PVSystem.PV_12 phases=1 bus1=G2001UB2100_N283965_sec_8.3 kV=0.24 kVA=4.2 irradiance=1 Pmpp=3.5 %cutin=0.1 %cutout=0.1
New PVSystem.PV_13 phases=1 bus1=G2001UB2100_N283965_sec_10.3 kV=0.24 kVA=5.76 irradiance=1 Pmpp=4.8 %cutin=0.1 %cutout=0.1
New PVSystem.PV_14 phases=1 bus1=G2001UJ5100_N284204_sec_2.2 kV=0.24 kVA=4.758 irradiance=1 Pmpp=3.965 %cutin=0.1 %cutout=0.1
New PVSystem.PV_15 phases=1 bus1=G2001VA3800_N283914_sec_4.3 kV=0.24 kVA=2.52 irradiance=1 Pmpp=2.1 %cutin=0.1 %cutout=0.1
New PVSystem.PV_16 phases=1 bus1=G2001VC8200_N283967_sec_3.3 kV=0.24 kVA=2.64 irradiance=1 Pmpp=2.2 %cutin=0.1 %cutout=0.1
New PVSystem.PV_17 phases=1 bus1=G2001XA3300_N283909_sec_4.3 kV=0.24 kVA=6.24 irradiance=1 Pmpp=5.2 %cutin=0.1 %cutout=0.1
New PVSystem.PV_18 phases=1 bus1=G2100AH8200_N283618_sec_8.3 kV=0.24 kVA=3.12 irradiance=1 Pmpp=2.6 %cutin=0.1 %cutout=0.1
New PVSystem.PV_19 phases=1 bus1=G2100BG5600_N283598_sec_1.3 kV=0.24 kVA=3.96 irradiance=1 Pmpp=3.3 %cutin=0.1 %cutout=0.1
New PVSystem.PV_20 phases=1 bus1=G2100BH6100_N283623_sec_1.3 kV=0.24 kVA=4.92 irradiance=1 Pmpp=4.1 %cutin=0.1 %cutout=0.1
New PVSystem.PV_21 phases=1 bus1=G2100CJ3000_N283718_sec_4.2 kV=0.24 kVA=1.256 irradiance=1 Pmpp=1.0467 %cutin=0.1 %cutout=0.1
New PVSystem.PV_22 phases=1 bus1=G2100CK4000_N283780_sec_5.2 kV=0.24 kVA=6 irradiance=1 Pmpp=5 %cutin=0.1 %cutout=0.1
New PVSystem.PV_23 phases=1 bus1=G2100CN4900_N283858_sec_9.3 kV=0.24 kVA=3.12 irradiance=1 Pmpp=2.6 %cutin=0.1 %cutout=0.1
New PVSystem.PV_24 phases=1 bus1=G2100DG1300_N283601_sec_13.3 kV=0.24 kVA=2.28 irradiance=1 Pmpp=1.9 %cutin=0.1 %cutout=0.1
New PVSystem.PV_25 phases=1 bus1=G2100DH9500_N292300_sec_2.3 kV=0.24 kVA=3.12 irradiance=1 Pmpp=2.6 %cutin=0.1 %cutout=0.1
New PVSystem.PV_26 phases=1 bus1=G2100DJ7200_N292334_sec_2.2 kV=0.24 kVA=6.0426 irradiance=1 Pmpp=5.0355 %cutin=0.1 %cutout=0.1
New PVSystem.PV_27 phases=1 bus1=G2100DJ7200_N292334_sec_3.2 kV=0.24 kVA=8.52 irradiance=1 Pmpp=7.1 %cutin=0.1 %cutout=0.1
New PVSystem.PV_28 phases=1 bus1=G2100DK1500_N283758_sec_2.2 kV=0.24 kVA=8.28 irradiance=1 Pmpp=6.9 %cutin=0.1 %cutout=0.1
New PVSystem.PV_29 phases=1 bus1=G2100DK1500_N283758_sec_4.2 kV=0.24 kVA=10.92 irradiance=1 Pmpp=9.1 %cutin=0.1 %cutout=0.1
New PVSystem.PV_30 phases=1 bus1=G2100DM6300_N283816_sec_5.3 kV=0.24 kVA=3.96 irradiance=1 Pmpp=3.3 %cutin=0.1 %cutout=0.1
New PVSystem.PV_31 phases=1 bus1=G2100EK2800_N292334_sec_5.2 kV=0.24 kVA=6.72 irradiance=1 Pmpp=5.6 %cutin=0.1 %cutout=0.1
New PVSystem.PV_32 phases=1 bus1=G2100FO1700_N292522_sec_6.3 kV=0.24 kVA=3.12 irradiance=1 Pmpp=2.6 %cutin=0.1 %cutout=0.1
New PVSystem.PV_33 phases=3 conn = delta bus1=G2100GI5400_N292325_sec_3.1.2.3 kV=0.48 kVA=13.56 irradiance=1 Pmpp=11.3 %cutin=0.1 %cutout=0.1
New PVSystem.PV_34 phases=3 conn = delta bus1=G2100GI5400_N292325_sec_4.1.2.3 kV=0.48 kVA=19.68 irradiance=1 Pmpp=16.4 %cutin=0.1 %cutout=0.1
New PVSystem.PV_35 phases=1 bus1=G2100GM9700_N292423_sec_30.3 kV=0.24 kVA=1.8 irradiance=1 Pmpp=1.5 %cutin=0.1 %cutout=0.1
New PVSystem.PV_36 phases=1 bus1=G2100GM9700_N292423_sec_31.3 kV=0.24 kVA=0.36 irradiance=1 Pmpp=0.3 %cutin=0.1 %cutout=0.1
New PVSystem.PV_37 phases=1 bus1=G2100GO6100_N292504_sec_5.1 kV=0.24 kVA=0.24 irradiance=1 Pmpp=0.2 %cutin=0.1 %cutout=0.1
New PVSystem.PV_38 phases=1 bus1=G2100HN5600_N292453_sec_15.3 kV=0.24 kVA=2.16 irradiance=1 Pmpp=1.8 %cutin=0.1 %cutout=0.1
New PVSystem.PV_39 phases=1 bus1=G2100IL1000_N292412_sec_13.3 kV=0.24 kVA=0.48 irradiance=1 Pmpp=0.4 %cutin=0.1 %cutout=0.1
New PVSystem.PV_40 phases=1 bus1=G2100IN2700_N292475_sec_11.3 kV=0.24 kVA=1.68 irradiance=1 Pmpp=1.4 %cutin=0.1 %cutout=0.1
New PVSystem.PV_41 phases=1 bus1=G2100IN7700_N292438_sec_4.3 kV=0.24 kVA=2.04 irradiance=1 Pmpp=1.7 %cutin=0.1 %cutout=0.1
New PVSystem.PV_42 phases=1 bus1=G2100IN7700_N292438_sec_20.3 kV=0.24 kVA=0.84 irradiance=1 Pmpp=0.7 %cutin=0.1 %cutout=0.1
New PVSystem.PV_43 phases=1 bus1=G2100NM4100_N300509_sec_4.1 kV=0.24 kVA=5.4374 irradiance=1 Pmpp=4.5312 %cutin=0.1 %cutout=0.1
New PVSystem.PV_44 phases=1 bus1=G2100QP9600_N300587_sec_6.2 kV=0.24 kVA=3.4619 irradiance=1 Pmpp=2.8849 %cutin=0.1 %cutout=0.1
New PVSystem.PV_45 phases=1 bus1=G2100RN0300_N300550_sec_4.3 kV=0.24 kVA=3.24 irradiance=1 Pmpp=2.7 %cutin=0.1 %cutout=0.1
New PVSystem.PV_46 phases=1 bus1=G2100RN1800_N300557_sec_8.3 kV=0.24 kVA=4.44 irradiance=1 Pmpp=3.7 %cutin=0.1 %cutout=0.1
New PVSystem.PV_47 phases=1 bus1=G2100RO0400_N300576_sec_2.3 kV=0.24 kVA=2.8859 irradiance=1 Pmpp=2.4049 %cutin=0.1 %cutout=0.1
New PVSystem.PV_48 phases=1 bus1=G2100SM1100_N312351_sec_1.3 kV=0.24 kVA=0 irradiance=1 Pmpp=0 %cutin=0.1 %cutout=0.1
New PVSystem.PV_49 phases=1 bus1=G2100SP2100_N312536_sec_5.2 kV=0.24 kVA=5.52 irradiance=1 Pmpp=4.6 %cutin=0.1 %cutout=0.1
New PVSystem.PV_50 phases=1 bus1=G2101AH4300_N284128_sec_3.3 kV=0.24 kVA=2.28 irradiance=1 Pmpp=1.9 %cutin=0.1 %cutout=0.1
New PVSystem.PV_51 phases=1 bus1=G2101AJ7700_N284211_sec_2.1 kV=0.24 kVA=1.92 irradiance=1 Pmpp=1.6 %cutin=0.1 %cutout=0.1
New PVSystem.PV_52 phases=1 bus1=G2101BI4200_N284183_sec_1.3 kV=0.24 kVA=8.28 irradiance=1 Pmpp=6.9 %cutin=0.1 %cutout=0.1
New PVSystem.PV_53 phases=1 bus1=G2101CF1100_N284085_sec_1.2 kV=0.24 kVA=9 irradiance=1 Pmpp=7.5 %cutin=0.1 %cutout=0.1
New PVSystem.PV_54 phases=1 bus1=G2101CJ7200_N284194_sec_2.1 kV=0.24 kVA=9.24 irradiance=1 Pmpp=7.7 %cutin=0.1 %cutout=0.1
New PVSystem.PV_55 phases=1 bus1=G2101DO1900_N284309_sec_3.1 kV=0.24 kVA=4.68 irradiance=1 Pmpp=3.9 %cutin=0.1 %cutout=0.1
New PVSystem.PV_56 phases=1 bus1=G2101FC3500_N292616_sec_1.1 kV=0.24 kVA=11.7226 irradiance=1 Pmpp=9.7688 %cutin=0.1 %cutout=0.1
New PVSystem.PV_57 phases=1 bus1=G2101FE1400_N292665_sec_7.1 kV=0.24 kVA=5.16 irradiance=1 Pmpp=4.3 %cutin=0.1 %cutout=0.1
New PVSystem.PV_58 phases=1 bus1=G2101FO4700_N292875_sec_2.2 kV=0.24 kVA=3.84 irradiance=1 Pmpp=3.2 %cutin=0.1 %cutout=0.1
New PVSystem.PV_59 phases=1 bus1=G2101GC3200_N292623_sec_1.1 kV=0.24 kVA=3.96 irradiance=1 Pmpp=3.3 %cutin=0.1 %cutout=0.1
New PVSystem.PV_60 phases=1 bus1=G2101GC3400_N292625_sec_17.1 kV=0.24 kVA=7.2 irradiance=1 Pmpp=6 %cutin=0.1 %cutout=0.1
New PVSystem.PV_61 phases=1 bus1=G2101GC9700_N292633_sec_6.1 kV=0.24 kVA=3.6 irradiance=1 Pmpp=3 %cutin=0.1 %cutout=0.1
New PVSystem.PV_62 phases=1 bus1=G2101GC9700_N292633_sec_9.1 kV=0.24 kVA=2.16 irradiance=1 Pmpp=1.8 %cutin=0.1 %cutout=0.1
New PVSystem.PV_63 phases=1 bus1=G2101GD9500_N292651_sec_9.1 kV=0.24 kVA=3.48 irradiance=1 Pmpp=2.9 %cutin=0.1 %cutout=0.1
New PVSystem.PV_64 phases=1 bus1=G2101GM7700_N292843_sec_2.2 kV=0.24 kVA=5.4 irradiance=1 Pmpp=4.5 %cutin=0.1 %cutout=0.1
New PVSystem.PV_65 phases=1 bus1=G2101HD2900_N292658_sec_9.1 kV=0.24 kVA=2.28 irradiance=1 Pmpp=1.9 %cutin=0.1 %cutout=0.1
New PVSystem.PV_66 phases=1 bus1=G2101HD3500_N292652_sec_17.1 kV=0.24 kVA=2.76 irradiance=1 Pmpp=2.3 %cutin=0.1 %cutout=0.1
New PVSystem.PV_67 phases=1 bus1=G2101JE7500_N300801_sec_1.1 kV=0.24 kVA=6.9772 irradiance=1 Pmpp=5.8143 %cutin=0.1 %cutout=0.1
New PVSystem.PV_68 phases=1 bus1=G2101JF1900_N292709_sec_1.1 kV=0.24 kVA=5.16 irradiance=1 Pmpp=4.3 %cutin=0.1 %cutout=0.1
New PVSystem.PV_69 phases=1 bus1=G2101JK1400_N300995_sec_1.3 kV=0.24 kVA=8.16 irradiance=1 Pmpp=6.8 %cutin=0.1 %cutout=0.1
New PVSystem.PV_70 phases=1 bus1=G2101KA2300_N300631_sec_1.1 kV=0.24 kVA=2.76 irradiance=1 Pmpp=2.3 %cutin=0.1 %cutout=0.1
New PVSystem.PV_71 phases=1 bus1=G2101KA6800_N300662_sec_2.1 kV=0.24 kVA=2.28 irradiance=1 Pmpp=1.9 %cutin=0.1 %cutout=0.1
New PVSystem.PV_72 phases=1 bus1=G2101OP2300_N300646_sec_3.1 kV=0.24 kVA=5.04 irradiance=1 Pmpp=4.2 %cutin=0.1 %cutout=0.1
New PVSystem.PV_73 phases=1 bus1=G2101PB2500_N300719_sec_3.3 kV=0.24 kVA=2.88 irradiance=1 Pmpp=2.4 %cutin=0.1 %cutout=0.1
New PVSystem.PV_74 phases=1 bus1=G2101PB7500_N300717_sec_2.3 kV=0.24 kVA=3.24 irradiance=1 Pmpp=2.7 %cutin=0.1 %cutout=0.1
New PVSystem.PV_75 phases=1 bus1=G2101QC1100_N300736_sec_5.3 kV=0.24 kVA=3.36 irradiance=1 Pmpp=2.8 %cutin=0.1 %cutout=0.1
New PVSystem.PV_76 phases=1 bus1=G2101RC6500_N312606_sec_4.1 kV=0.24 kVA=4.44 irradiance=1 Pmpp=3.7 %cutin=0.1 %cutout=0.1
New PVSystem.PV_77 phases=1 bus1=G2101SB6500_N312568_sec_2.1 kV=0.24 kVA=4.32 irradiance=1 Pmpp=3.6 %cutin=0.1 %cutout=0.1
New PVSystem.PV_78 phases=1 bus1=G2101SB6500_N312568_sec_5.1 kV=0.24 kVA=2.52 irradiance=1 Pmpp=2.1 %cutin=0.1 %cutout=0.1
New PVSystem.PV_79 phases=1 bus1=G2000SO9400_N274214_sec_1.3 kV=0.24 kVA=5.76 irradiance=1 Pmpp=4.8 %cutin=0.1 %cutout=0.1
New PVSystem.PV_80 phases=1 bus1=G2000TJ2700_N274103_sec_2.3 kV=0.24 kVA=2.04 irradiance=1 Pmpp=1.7 %cutin=0.1 %cutout=0.1
New PVSystem.PV_81 phases=1 bus1=G2000VI6200_N283684_sec_3.2 kV=0.24 kVA=6.48 irradiance=1 Pmpp=5.4 %cutin=0.1 %cutout=0.1
New PVSystem.PV_82 phases=1 bus1=G2000WI4400_N283710_sec_1.2 kV=0.24 kVA=4.1634 irradiance=1 Pmpp=3.4695 %cutin=0.1 %cutout=0.1
New PVSystem.PV_83 phases=1 bus1=G2000XO7000_N283918_sec_1.3 kV=0.24 kVA=4.92 irradiance=1 Pmpp=4.1 %cutin=0.1 %cutout=0.1
New PVSystem.PV_84 phases=1 bus1=G2000XO7000_N283918_sec_3.3 kV=0.24 kVA=5.88 irradiance=1 Pmpp=4.9 %cutin=0.1 %cutout=0.1
New PVSystem.PV_85 phases=1 bus1=G2001RL0800_N274521_sec_3.2 kV=0.24 kVA=0.84 irradiance=1 Pmpp=0.7 %cutin=0.1 %cutout=0.1
New PVSystem.PV_86 phases=1 bus1=G2001SL6300_N274540_sec_5.2 kV=0.24 kVA=10.2731 irradiance=1 Pmpp=8.5609 %cutin=0.1 %cutout=0.1
New PVSystem.PV_87 phases=1 bus1=G2001TG2100_N284104_sec_3.3 kV=0.24 kVA=8.64 irradiance=1 Pmpp=7.2 %cutin=0.1 %cutout=0.1
New PVSystem.PV_88 phases=1 bus1=G2001WB8800_N283948_sec_9.3 kV=0.24 kVA=5.64 irradiance=1 Pmpp=4.7 %cutin=0.1 %cutout=0.1
New PVSystem.PV_89 phases=1 bus1=G2001WB9000_N283924_sec_4.3 kV=0.24 kVA=5.4 irradiance=1 Pmpp=4.5 %cutin=0.1 %cutout=0.1
New PVSystem.PV_90 phases=1 bus1=G2001WC3900_N284043_sec_1.3 kV=0.24 kVA=1.2 irradiance=1 Pmpp=1 %cutin=0.1 %cutout=0.1
New PVSystem.PV_91 phases=1 bus1=G2001WC3900_N284043_sec_3.3 kV=0.24 kVA=3.36 irradiance=1 Pmpp=2.8 %cutin=0.1 %cutout=0.1
New PVSystem.PV_92 phases=1 bus1=G2001XF2300_N284087_sec_1.1 kV=0.24 kVA=7.68 irradiance=1 Pmpp=6.4 %cutin=0.1 %cutout=0.1
New PVSystem.PV_93 phases=1 bus1=G2001XF9200_N284087_sec_1.3 kV=0.24 kVA=3.12 irradiance=1 Pmpp=2.6 %cutin=0.1 %cutout=0.1
New PVSystem.PV_94 phases=1 bus1=G2002AF2300_N284383_sec_4.1 kV=0.24 kVA=1.44 irradiance=1 Pmpp=1.2 %cutin=0.1 %cutout=0.1
New PVSystem.PV_95 phases=1 bus1=G2100AE4800_N283558_sec_6.3 kV=0.24 kVA=2.04 irradiance=1 Pmpp=1.7 %cutin=0.1 %cutout=0.1
New PVSystem.PV_96 phases=1 bus1=G2100AM2000_N283802_sec_1.1 kV=0.24 kVA=4.44 irradiance=1 Pmpp=3.7 %cutin=0.1 %cutout=0.1
New PVSystem.PV_97 phases=1 bus1=G2100BE8900_N283564_sec_4.3 kV=0.24 kVA=3.24 irradiance=1 Pmpp=2.7 %cutin=0.1 %cutout=0.1
New PVSystem.PV_98 phases=1 bus1=G2100BJ2200_N283714_sec_3.2 kV=0.24 kVA=5.4 irradiance=1 Pmpp=4.5 %cutin=0.1 %cutout=0.1
New PVSystem.PV_99 phases=1 bus1=G2100BL8300_N283778_sec_8.1 kV=0.24 kVA=0.84 irradiance=1 Pmpp=0.7 %cutin=0.1 %cutout=0.1
New PVSystem.PV_100 phases=1 bus1=G2100BO1200_N283866_sec_4.3 kV=0.24 kVA=5.04 irradiance=1 Pmpp=4.2 %cutin=0.1 %cutout=0.1
New PVSystem.PV_101 phases=1 bus1=G2100CG0300_N283590_sec_9.3 kV=0.24 kVA=1.56 irradiance=1 Pmpp=1.3 %cutin=0.1 %cutout=0.1
New PVSystem.PV_102 phases=1 bus1=G2100CH7400_N283632_sec_1.3 kV=0.24 kVA=2.28 irradiance=1 Pmpp=1.9 %cutin=0.1 %cutout=0.1
New PVSystem.PV_103 phases=1 bus1=G2100CN4000_N283847_sec_6.3 kV=0.24 kVA=2.88 irradiance=1 Pmpp=2.4 %cutin=0.1 %cutout=0.1
New PVSystem.PV_104 phases=1 bus1=G2100DG1300_N283601_sec_3.3 kV=0.24 kVA=2.28 irradiance=1 Pmpp=1.9 %cutin=0.1 %cutout=0.1
New PVSystem.PV_105 phases=1 bus1=G2100DG3700_N283614_sec_21.3 kV=0.24 kVA=3.12 irradiance=1 Pmpp=2.6 %cutin=0.1 %cutout=0.1
New PVSystem.PV_106 phases=1 bus1=G2100DN3000_N283838_sec_10.3 kV=0.24 kVA=2.52 irradiance=1 Pmpp=2.1 %cutin=0.1 %cutout=0.1
New PVSystem.PV_107 phases=1 bus1=G2100DN4800_N283861_sec_15.3 kV=0.24 kVA=1.92 irradiance=1 Pmpp=1.6 %cutin=0.1 %cutout=0.1
New PVSystem.PV_108 phases=1 bus1=G2100EH3700_N292308_sec_2.1 kV=0.24 kVA=7.32 irradiance=1 Pmpp=6.1 %cutin=0.1 %cutout=0.1
New PVSystem.PV_109 phases=1 bus1=G2100EH3700_N292308_sec_7.1 kV=0.24 kVA=3.84 irradiance=1 Pmpp=3.2 %cutin=0.1 %cutout=0.1
New PVSystem.PV_110 phases=1 bus1=G2100EM2500_N292390_sec_5.2 kV=0.24 kVA=4.7331 irradiance=1 Pmpp=3.9443 %cutin=0.1 %cutout=0.1
New PVSystem.PV_111 phases=1 bus1=G2100EN2200_N292457_sec_35.3 kV=0.24 kVA=5.76 irradiance=1 Pmpp=4.8 %cutin=0.1 %cutout=0.1
New PVSystem.PV_112 phases=1 bus1=G2100EN2200_N292457_sec_36.3 kV=0.24 kVA=6.6 irradiance=1 Pmpp=5.5 %cutin=0.1 %cutout=0.1
New PVSystem.PV_113 phases=1 bus1=G2100EN8600_N292479_sec_2.3 kV=0.24 kVA=2.04 irradiance=1 Pmpp=1.7 %cutin=0.1 %cutout=0.1
New PVSystem.PV_114 phases=1 bus1=G2100EN8600_N292479_sec_10.3 kV=0.24 kVA=1.68 irradiance=1 Pmpp=1.4 %cutin=0.1 %cutout=0.1
New PVSystem.PV_115 phases=1 bus1=G2100EO2100_N292498_sec_13.3 kV=0.24 kVA=1.56 irradiance=1 Pmpp=1.3 %cutin=0.1 %cutout=0.1
New PVSystem.PV_116 phases=1 bus1=G2100EO2100_N292498_sec_14.3 kV=0.24 kVA=2.88 irradiance=1 Pmpp=2.4 %cutin=0.1 %cutout=0.1
New PVSystem.PV_117 phases=1 bus1=G2100FK9800_N292385_sec_5.1 kV=0.24 kVA=2.28 irradiance=1 Pmpp=1.9 %cutin=0.1 %cutout=0.1
New PVSystem.PV_118 phases=1 bus1=G2100HM9900_N292433_sec_20.3 kV=0.24 kVA=1.08 irradiance=1 Pmpp=0.9 %cutin=0.1 %cutout=0.1
New PVSystem.PV_119 phases=1 bus1=G2100HM9900_N292433_sec_21.3 kV=0.24 kVA=1.32 irradiance=1 Pmpp=1.1 %cutin=0.1 %cutout=0.1
New PVSystem.PV_120 phases=1 bus1=G2100HN5600_N292453_sec_45.3 kV=0.24 kVA=5.04 irradiance=1 Pmpp=4.2 %cutin=0.1 %cutout=0.1
New PVSystem.PV_121 phases=1 bus1=G2100IL1000_N292412_sec_3.3 kV=0.24 kVA=5.52 irradiance=1 Pmpp=4.6 %cutin=0.1 %cutout=0.1
New PVSystem.PV_122 phases=1 bus1=G2100IL1000_N292412_sec_39.3 kV=0.24 kVA=2.64 irradiance=1 Pmpp=2.2 %cutin=0.1 %cutout=0.1
New PVSystem.PV_123 phases=3 conn = delta bus1=G2100KO6600_N300582_sec_1.1.2.3 kV=0.48 kVA=5.88 irradiance=1 Pmpp=4.9 %cutin=0.1 %cutout=0.1
New PVSystem.PV_124 phases=1 bus1=G2100ON7300_N300541_sec_3.1 kV=0.24 kVA=7.32 irradiance=1 Pmpp=6.1 %cutin=0.1 %cutout=0.1
New PVSystem.PV_125 phases=1 bus1=G2100SP2100_N312536_sec_9.2 kV=0.24 kVA=6.84 irradiance=1 Pmpp=5.7 %cutin=0.1 %cutout=0.1
New PVSystem.PV_126 phases=1 bus1=G2101BL8500_N284244_sec_1.1 kV=0.24 kVA=13.68 irradiance=1 Pmpp=11.4 %cutin=0.1 %cutout=0.1
New PVSystem.PV_127 phases=1 bus1=G2101DC3900_N283999_sec_1.2 kV=0.24 kVA=6.2041 irradiance=1 Pmpp=5.1701 %cutin=0.1 %cutout=0.1
New PVSystem.PV_128 phases=1 bus1=G2101DD6900_N284041_sec_1.2 kV=0.24 kVA=3.24 irradiance=1 Pmpp=2.7 %cutin=0.1 %cutout=0.1
New PVSystem.PV_129 phases=1 bus1=G2101EE3400_N284041_sec_4.2 kV=0.24 kVA=8.88 irradiance=1 Pmpp=7.4 %cutin=0.1 %cutout=0.1
New PVSystem.PV_130 phases=1 bus1=G2101EM6600_N292838_sec_2.2 kV=0.24 kVA=5.28 irradiance=1 Pmpp=4.4 %cutin=0.1 %cutout=0.1
New PVSystem.PV_131 phases=1 bus1=G2101EN1400_N284291_sec_1.1 kV=0.24 kVA=4.56 irradiance=1 Pmpp=3.8 %cutin=0.1 %cutout=0.1
New PVSystem.PV_132 phases=1 bus1=G2101FC9500_N292618_sec_7.1 kV=0.24 kVA=10.08 irradiance=1 Pmpp=8.4 %cutin=0.1 %cutout=0.1
New PVSystem.PV_133 phases=1 bus1=G2101FK7100_N292792_sec_3.2 kV=0.24 kVA=6.72 irradiance=1 Pmpp=5.6 %cutin=0.1 %cutout=0.1
New PVSystem.PV_134 phases=1 bus1=G2101GB6700_N292603_sec_5.1 kV=0.24 kVA=5.52 irradiance=1 Pmpp=4.6 %cutin=0.1 %cutout=0.1
New PVSystem.PV_135 phases=1 bus1=G2101GC9700_N292633_sec_3.1 kV=0.24 kVA=5.76 irradiance=1 Pmpp=4.8 %cutin=0.1 %cutout=0.1
New PVSystem.PV_136 phases=1 bus1=G2101GC9700_N292633_sec_24.1 kV=0.24 kVA=2.4 irradiance=1 Pmpp=2 %cutin=0.1 %cutout=0.1
New PVSystem.PV_137 phases=1 bus1=G2101GD9500_N292651_sec_7.1 kV=0.24 kVA=1.44 irradiance=1 Pmpp=1.2 %cutin=0.1 %cutout=0.1
New PVSystem.PV_138 phases=1 bus1=G2101GK7600_N292811_sec_2.2 kV=0.24 kVA=11.4 irradiance=1 Pmpp=9.5 %cutin=0.1 %cutout=0.1
New PVSystem.PV_139 phases=1 bus1=G2101GM7400_N292866_sec_1.3 kV=0.24 kVA=5.16 irradiance=1 Pmpp=4.3 %cutin=0.1 %cutout=0.1
New PVSystem.PV_140 phases=1 bus1=G2101HB3500_N292585_sec_4.1 kV=0.24 kVA=3.36 irradiance=1 Pmpp=2.8 %cutin=0.1 %cutout=0.1
New PVSystem.PV_141 phases=1 bus1=G2101HB3500_N292585_sec_6.1 kV=0.24 kVA=1.92 irradiance=1 Pmpp=1.6 %cutin=0.1 %cutout=0.1
New PVSystem.PV_142 phases=1 bus1=G2101HB3800_N292598_sec_1.1 kV=0.24 kVA=3.96 irradiance=1 Pmpp=3.3 %cutin=0.1 %cutout=0.1
New PVSystem.PV_143 phases=1 bus1=G2101HB3800_N292598_sec_13.1 kV=0.24 kVA=8.04 irradiance=1 Pmpp=6.7 %cutin=0.1 %cutout=0.1
New PVSystem.PV_144 phases=1 bus1=G2101HD1100_N292645_sec_13.1 kV=0.24 kVA=3.24 irradiance=1 Pmpp=2.7 %cutin=0.1 %cutout=0.1
New PVSystem.PV_145 phases=1 bus1=G2101HL5500_N292841_sec_2.3 kV=0.24 kVA=5.64 irradiance=1 Pmpp=4.7 %cutin=0.1 %cutout=0.1
New PVSystem.PV_146 phases=1 bus1=G2101KA0900_N300672_sec_19.1 kV=0.24 kVA=3.48 irradiance=1 Pmpp=2.9 %cutin=0.1 %cutout=0.1
New PVSystem.PV_147 phases=1 bus1=G2101KA2300_N300631_sec_14.1 kV=0.24 kVA=4.08 irradiance=1 Pmpp=3.4 %cutin=0.1 %cutout=0.1
New PVSystem.PV_148 phases=1 bus1=G2101KA3900_N300679_sec_18.1 kV=0.24 kVA=3.6 irradiance=1 Pmpp=3 %cutin=0.1 %cutout=0.1
New PVSystem.PV_149 phases=1 bus1=G2101OA5600_N300661_sec_1.1 kV=0.24 kVA=5.52 irradiance=1 Pmpp=4.6 %cutin=0.1 %cutout=0.1
New PVSystem.PV_150 phases=1 bus1=G2101OB6500_N300721_sec_4.3 kV=0.24 kVA=2.88 irradiance=1 Pmpp=2.4 %cutin=0.1 %cutout=0.1
New PVSystem.PV_151 phases=1 bus1=G2101QA0800_N300664_sec_2.1 kV=0.24 kVA=5.76 irradiance=1 Pmpp=4.8 %cutin=0.1 %cutout=0.1
New PVSystem.PV_152 phases=1 bus1=G2101QC7600_N300750_sec_4.3 kV=0.24 kVA=1.92 irradiance=1 Pmpp=1.6 %cutin=0.1 %cutout=0.1
New PVSystem.PV_153 phases=1 bus1=G2101RB6300_N312566_sec_7.1 kV=0.24 kVA=2.64 irradiance=1 Pmpp=2.2 %cutin=0.1 %cutout=0.1
New PVSystem.PV_154 phases=1 bus1=G2102BB1100_N284327_sec_2.1 kV=0.24 kVA=8.64 irradiance=1 Pmpp=7.2 %cutin=0.1 %cutout=0.1
New PVSystem.PV_155 phases=1 bus1=G2102DD1700_N284353_sec_1.1 kV=0.24 kVA=7.92 irradiance=1 Pmpp=6.6 %cutin=0.1 %cutout=0.1
New PVSystem.PV_156 phases=1 bus1=G2000RN2800_N274196_sec_1.3 kV=0.24 kVA=3.12 irradiance=1 Pmpp=2.6 %cutin=0.1 %cutout=0.1
New PVSystem.PV_157 phases=1 bus1=G2000VJ0200_N283716_sec_3.2 kV=0.24 kVA=6.84 irradiance=1 Pmpp=5.7 %cutin=0.1 %cutout=0.1
New PVSystem.PV_158 phases=1 bus1=G2000XL8000_N283769_sec_2.1 kV=0.24 kVA=3.96 irradiance=1 Pmpp=3.3 %cutin=0.1 %cutout=0.1
New PVSystem.PV_159 phases=1 bus1=G2000XO7000_N283918_sec_6.3 kV=0.24 kVA=5.28 irradiance=1 Pmpp=4.4 %cutin=0.1 %cutout=0.1
New PVSystem.PV_160 phases=1 bus1=G2000XO7000_N283918_sec_7.3 kV=0.24 kVA=5.64 irradiance=1 Pmpp=4.7 %cutin=0.1 %cutout=0.1
New PVSystem.PV_161 phases=1 bus1=G2000YI1900_N283701_sec_1.1 kV=0.24 kVA=4.56 irradiance=1 Pmpp=3.8 %cutin=0.1 %cutout=0.1
New PVSystem.PV_162 phases=1 bus1=G2001QI3100_N274419_sec_2.2 kV=0.24 kVA=5.4 irradiance=1 Pmpp=4.5 %cutin=0.1 %cutout=0.1
New PVSystem.PV_163 phases=1 bus1=G2001SE4900_N274364_sec_2.3 kV=0.24 kVA=7.08 irradiance=1 Pmpp=5.9 %cutin=0.1 %cutout=0.1
New PVSystem.PV_164 phases=1 bus1=G2001SI3300_N274448_sec_2.1 kV=0.24 kVA=7.56 irradiance=1 Pmpp=6.3 %cutin=0.1 %cutout=0.1
New PVSystem.PV_165 phases=1 bus1=G2001TC6700_N274291_sec_6.3 kV=0.24 kVA=6.6 irradiance=1 Pmpp=5.5 %cutin=0.1 %cutout=0.1
New PVSystem.PV_166 phases=1 bus1=G2001TD6700_N274321_sec_3.3 kV=0.24 kVA=4.32 irradiance=1 Pmpp=3.6 %cutin=0.1 %cutout=0.1
New PVSystem.PV_167 phases=1 bus1=G2001TE3800_N274352_sec_4.3 kV=0.24 kVA=5.04 irradiance=1 Pmpp=4.2 %cutin=0.1 %cutout=0.1
New PVSystem.PV_168 phases=1 bus1=G2001TI4000_N284133_sec_1.2 kV=0.24 kVA=16.8 irradiance=1 Pmpp=14 %cutin=0.1 %cutout=0.1
New PVSystem.PV_169 phases=1 bus1=G2001UB4400_N283904_sec_5.3 kV=0.24 kVA=2.88 irradiance=1 Pmpp=2.4 %cutin=0.1 %cutout=0.1
New PVSystem.PV_170 phases=1 bus1=G2001UE1100_N284038_sec_5.3 kV=0.24 kVA=2.7733 irradiance=1 Pmpp=2.3111 %cutin=0.1 %cutout=0.1
New PVSystem.PV_171 phases=1 bus1=G2001VA3800_N283914_sec_8.3 kV=0.24 kVA=3.84 irradiance=1 Pmpp=3.2 %cutin=0.1 %cutout=0.1
New PVSystem.PV_172 phases=1 bus1=G2001VD6400_N283955_sec_3.3 kV=0.24 kVA=4.92 irradiance=1 Pmpp=4.1 %cutin=0.1 %cutout=0.1
New PVSystem.PV_173 phases=1 bus1=G2001VD7200_N283953_sec_2.3 kV=0.24 kVA=3.96 irradiance=1 Pmpp=3.3 %cutin=0.1 %cutout=0.1
New PVSystem.PV_174 phases=1 bus1=G2001VK4000_N284221_sec_1.2 kV=0.24 kVA=6.84 irradiance=1 Pmpp=5.7 %cutin=0.1 %cutout=0.1
New PVSystem.PV_175 phases=1 bus1=G2001WB8800_N283948_sec_6.3 kV=0.24 kVA=5.04 irradiance=1 Pmpp=4.2 %cutin=0.1 %cutout=0.1
New PVSystem.PV_176 phases=1 bus1=G2100AE9900_N283556_sec_4.3 kV=0.24 kVA=3.36 irradiance=1 Pmpp=2.8 %cutin=0.1 %cutout=0.1
New PVSystem.PV_177 phases=1 bus1=G2100AG2100_N283585_sec_6.3 kV=0.24 kVA=4.92 irradiance=1 Pmpp=4.1 %cutin=0.1 %cutout=0.1
New PVSystem.PV_178 phases=1 bus1=G2100AK1200_N283742_sec_2.2 kV=0.24 kVA=5.76 irradiance=1 Pmpp=4.8 %cutin=0.1 %cutout=0.1
New PVSystem.PV_179 phases=1 bus1=G2100BE8900_N283564_sec_6.3 kV=0.24 kVA=3.96 irradiance=1 Pmpp=3.3 %cutin=0.1 %cutout=0.1
New PVSystem.PV_180 phases=1 bus1=G2100BJ1300_N283735_sec_2.2 kV=0.24 kVA=10.92 irradiance=1 Pmpp=9.1 %cutin=0.1 %cutout=0.1
New PVSystem.PV_181 phases=1 bus1=G2100BO8200_N283874_sec_1.3 kV=0.24 kVA=3.84 irradiance=1 Pmpp=3.2 %cutin=0.1 %cutout=0.1
New PVSystem.PV_182 phases=1 bus1=G2100CG0300_N283590_sec_3.3 kV=0.24 kVA=1.32 irradiance=1 Pmpp=1.1 %cutin=0.1 %cutout=0.1
New PVSystem.PV_183 phases=1 bus1=G2100CG0300_N283590_sec_13.3 kV=0.24 kVA=3.12 irradiance=1 Pmpp=2.6 %cutin=0.1 %cutout=0.1
New PVSystem.PV_184 phases=1 bus1=G2100CK4000_N283780_sec_1.2 kV=0.24 kVA=4.32 irradiance=1 Pmpp=3.6 %cutin=0.1 %cutout=0.1
New PVSystem.PV_185 phases=1 bus1=G2100CN4900_N283858_sec_13.3 kV=0.24 kVA=1.44 irradiance=1 Pmpp=1.2 %cutin=0.1 %cutout=0.1
New PVSystem.PV_186 phases=1 bus1=G2100DH9500_N292300_sec_5.3 kV=0.24 kVA=3.36 irradiance=1 Pmpp=2.8 %cutin=0.1 %cutout=0.1
New PVSystem.PV_187 phases=1 bus1=G2100DM6300_N283816_sec_2.3 kV=0.24 kVA=6.84 irradiance=1 Pmpp=5.7 %cutin=0.1 %cutout=0.1
New PVSystem.PV_188 phases=1 bus1=G2100DN3000_N283838_sec_3.3 kV=0.24 kVA=2.88 irradiance=1 Pmpp=2.4 %cutin=0.1 %cutout=0.1
New PVSystem.PV_189 phases=1 bus1=G2100DN4800_N283861_sec_12.3 kV=0.24 kVA=0.96 irradiance=1 Pmpp=0.8 %cutin=0.1 %cutout=0.1
New PVSystem.PV_190 phases=3 conn = delta bus1=G2100EG9700_N292283_sec_2.1.2.3 kV=0.48 kVA=6.24 irradiance=1 Pmpp=5.2 %cutin=0.1 %cutout=0.1
New PVSystem.PV_191 phases=1 bus1=G2100EN2200_N292457_sec_12.3 kV=0.24 kVA=2.04 irradiance=1 Pmpp=1.7 %cutin=0.1 %cutout=0.1
New PVSystem.PV_192 phases=1 bus1=G2100EN2200_N292457_sec_19.3 kV=0.24 kVA=2.52 irradiance=1 Pmpp=2.1 %cutin=0.1 %cutout=0.1
New PVSystem.PV_193 phases=1 bus1=G2100EN2200_N292457_sec_32.3 kV=0.24 kVA=3 irradiance=1 Pmpp=2.5 %cutin=0.1 %cutout=0.1
New PVSystem.PV_194 phases=1 bus1=G2100EO1300_N292510_sec_1.3 kV=0.24 kVA=1.44 irradiance=1 Pmpp=1.2 %cutin=0.1 %cutout=0.1
New PVSystem.PV_195 phases=1 bus1=G2100EO1300_N292510_sec_3.3 kV=0.24 kVA=2.04 irradiance=1 Pmpp=1.7 %cutin=0.1 %cutout=0.1
New PVSystem.PV_196 phases=3 conn = delta bus1=G2100FE2600_N292234_sec_6.1.2.3 kV=0.48 kVA=7.2 irradiance=1 Pmpp=6 %cutin=0.1 %cutout=0.1
New PVSystem.PV_197 phases=3 conn = delta bus1=G2100FE2600_N292234_sec_10.1.2.3 kV=0.48 kVA=1.32 irradiance=1 Pmpp=1.1 %cutin=0.1 %cutout=0.1
New PVSystem.PV_198 phases=3 conn = delta bus1=G2100FJ3800_N292380_sec_12.1.2.3 kV=0.48 kVA=5.52 irradiance=1 Pmpp=4.6 %cutin=0.1 %cutout=0.1
New PVSystem.PV_199 phases=1 bus1=G2100FK5800_N292373_sec_7.2 kV=0.24 kVA=3.72 irradiance=1 Pmpp=3.1 %cutin=0.1 %cutout=0.1
New PVSystem.PV_200 phases=1 bus1=G2100FL3500_N292410_sec_6.2 kV=0.24 kVA=0.72 irradiance=1 Pmpp=0.6 %cutin=0.1 %cutout=0.1
...
